<?xml version="1.0" encoding="UTF-8"?>

<!-- generated on 2024-07-04 13:04:22 by Eclipse SUMO netedit Version 1.15.0
<configuration xmlns:xsi="http://www.w3.org/2001/XMLSchema-instance" xsi:noNamespaceSchemaLocation="http://sumo.dlr.de/xsd/netconvertConfiguration.xsd">

    <input>
        <sumo-net-file value="C:\Users\ambolt\1\1.net.xml"/>
    </input>

    <output>
        <output-file value="C:\Users\ambolt\1\1.net.xml"/>
        <output.street-names value="true"/>
    </output>

    <processing>
        <geometry.min-radius.fix.railways value="false"/>
        <geometry.max-grade.fix value="false"/>
        <offset.disable-normalization value="true"/>
        <lefthand value="0"/>
    </processing>

    <junctions>
        <no-turnarounds value="true"/>
        <junctions.corner-detail value="5"/>
        <junctions.limit-turn-speed value="5.50"/>
        <rectangular-lane-cut value="0"/>
    </junctions>

    <pedestrian>
        <walkingareas value="0"/>
    </pedestrian>

</configuration>
-->

<net version="1.9" junctionCornerDetail="5" limitTurnSpeed="5.50" xmlns:xsi="http://www.w3.org/2001/XMLSchema-instance" xsi:noNamespaceSchemaLocation="http://sumo.dlr.de/xsd/net_file.xsd">

    <location netOffset="-700171.91,-4526092.49" convBoundary="0.00,0.00,973.74,1291.78" origBoundary="29.375301,40.861337,29.386818,40.872898" projParameter="+proj=utm +zone=35 +ellps=WGS84 +datum=WGS84 +units=m +no_defs"/>

    <type id="highway.bridleway" priority="1" numLanes="1" speed="2.78" allow="pedestrian" oneway="1" width="2.00"/>
    <type id="highway.bus_guideway" priority="1" numLanes="1" speed="27.78" allow="bus" oneway="1"/>
    <type id="highway.cycleway" priority="1" numLanes="1" speed="5.56" allow="bicycle" oneway="0" width="1.00"/>
    <type id="highway.footway" priority="1" numLanes="1" speed="2.78" allow="pedestrian" oneway="1" width="2.00"/>
    <type id="highway.ford" priority="1" numLanes="1" speed="2.78" allow="army" oneway="0"/>
    <type id="highway.living_street" priority="2" numLanes="1" speed="2.78" disallow="tram rail_urban rail rail_electric rail_fast ship" oneway="0"/>
    <type id="highway.motorway" priority="14" numLanes="2" speed="39.44" allow="private emergency authority army vip passenger hov taxi bus coach delivery truck trailer motorcycle evehicle custom1 custom2" oneway="1"/>
    <type id="highway.motorway_link" priority="9" numLanes="1" speed="22.22" allow="private emergency authority army vip passenger hov taxi bus coach delivery truck trailer motorcycle evehicle custom1 custom2" oneway="1"/>
    <type id="highway.path" priority="1" numLanes="1" speed="5.56" allow="pedestrian bicycle" oneway="0" width="2.00"/>
    <type id="highway.pedestrian" priority="1" numLanes="1" speed="2.78" allow="pedestrian" oneway="1" width="2.00"/>
    <type id="highway.primary" priority="12" numLanes="2" speed="27.78" disallow="tram rail_urban rail rail_electric rail_fast ship" oneway="0"/>
    <type id="highway.primary_link" priority="7" numLanes="1" speed="22.22" disallow="tram rail_urban rail rail_electric rail_fast ship" oneway="0"/>
    <type id="highway.raceway" priority="15" numLanes="2" speed="83.33" allow="vip" oneway="0"/>
    <type id="highway.residential" priority="3" numLanes="1" speed="13.89" disallow="tram rail_urban rail rail_electric rail_fast ship" oneway="0"/>
    <type id="highway.secondary" priority="11" numLanes="1" speed="27.78" disallow="tram rail_urban rail rail_electric rail_fast ship" oneway="0"/>
    <type id="highway.secondary_link" priority="6" numLanes="1" speed="22.22" disallow="tram rail_urban rail rail_electric rail_fast ship" oneway="0"/>
    <type id="highway.service" priority="1" numLanes="1" speed="5.56" allow="pedestrian delivery bicycle" oneway="0"/>
    <type id="highway.stairs" priority="1" numLanes="1" speed="1.39" allow="pedestrian" oneway="1" width="2.00"/>
    <type id="highway.step" priority="1" numLanes="1" speed="1.39" allow="pedestrian" oneway="1" width="2.00"/>
    <type id="highway.steps" priority="1" numLanes="1" speed="1.39" allow="pedestrian" oneway="1" width="2.00"/>
    <type id="highway.tertiary" priority="10" numLanes="1" speed="22.22" disallow="tram rail_urban rail rail_electric rail_fast ship" oneway="0"/>
    <type id="highway.tertiary_link" priority="5" numLanes="1" speed="22.22" disallow="tram rail_urban rail rail_electric rail_fast ship" oneway="0"/>
    <type id="highway.track" priority="1" numLanes="1" speed="5.56" allow="pedestrian motorcycle moped bicycle" oneway="0"/>
    <type id="highway.trunk" priority="13" numLanes="2" speed="27.78" disallow="pedestrian bicycle tram rail_urban rail rail_electric rail_fast ship" oneway="0"/>
    <type id="highway.trunk_link" priority="8" numLanes="1" speed="22.22" disallow="pedestrian bicycle tram rail_urban rail rail_electric rail_fast ship" oneway="0"/>
    <type id="highway.unclassified" priority="4" numLanes="1" speed="13.89" disallow="tram rail_urban rail rail_electric rail_fast ship" oneway="0"/>
    <type id="highway.unsurfaced" priority="1" numLanes="1" speed="8.33" disallow="tram rail_urban rail rail_electric rail_fast ship" oneway="0"/>
    <type id="railway.highspeed" priority="21" numLanes="1" speed="69.44" allow="rail_fast" oneway="1"/>
    <type id="railway.light_rail" priority="19" numLanes="1" speed="27.78" allow="rail_urban" oneway="1"/>
    <type id="railway.preserved" priority="16" numLanes="1" speed="27.78" allow="rail" oneway="1"/>
    <type id="railway.rail" priority="20" numLanes="1" speed="44.44" allow="rail" oneway="1"/>
    <type id="railway.subway" priority="18" numLanes="1" speed="27.78" allow="rail_urban" oneway="1"/>
    <type id="railway.tram" priority="17" numLanes="1" speed="13.89" allow="tram" oneway="1"/>

    <edge id=":248568500_0" function="internal">
        <lane id=":248568500_0_0" index="0" allow="private emergency authority army vip passenger hov taxi bus coach delivery truck trailer motorcycle evehicle custom1 custom2" speed="25.00" length="2.85" shape="492.26,336.33 494.72,334.88"/>
    </edge>
    <edge id=":248568500_1" function="internal">
        <lane id=":248568500_1_0" index="0" disallow="tram rail_urban rail rail_electric rail_fast ship" speed="27.78" length="3.03" shape="493.84,339.11 496.44,337.65"/>
        <lane id=":248568500_1_1" index="1" disallow="tram rail_urban rail rail_electric rail_fast ship" speed="27.78" length="3.03" shape="495.42,341.89 498.12,340.38"/>
    </edge>
    <edge id=":248568539_0" function="internal">
        <lane id=":248568539_0_0" index="0" allow="private emergency authority army vip passenger hov taxi bus coach delivery truck trailer motorcycle evehicle custom1 custom2" speed="25.00" length="41.70" shape="524.85,343.79 518.45,347.15 507.98,352.50 496.62,358.16 487.53,362.39"/>
    </edge>
    <edge id=":248568539_1" function="internal">
        <lane id=":248568539_1_0" index="0" disallow="tram rail_urban rail rail_electric rail_fast ship" speed="27.78" length="41.53" shape="523.14,340.61 515.29,345.69 505.60,352.00 495.78,358.07 487.53,362.39"/>
        <lane id=":248568539_1_1" index="1" disallow="tram rail_urban rail rail_electric rail_fast ship" speed="27.78" length="41.53" shape="521.45,337.89 513.67,342.94 504.12,349.18 494.45,355.16 486.27,359.45"/>
    </edge>
    <edge id=":2917422402_0" function="internal">
        <lane id=":2917422402_0_0" index="0" disallow="tram rail_urban rail rail_electric rail_fast ship" speed="6.44" length="9.03" shape="468.58,592.95 466.92,594.81 466.27,596.73 466.64,598.73 468.01,600.80"/>
    </edge>
    <edge id=":2917422402_1" function="internal">
        <lane id=":2917422402_1_0" index="0" disallow="tram rail_urban rail rail_electric rail_fast ship" speed="3.65" length="4.67" shape="468.58,592.95 467.14,593.11 466.32,592.76 466.12,591.89 466.52,590.50"/>
    </edge>
    <edge id=":2917422402_2" function="internal">
        <lane id=":2917422402_2_0" index="0" disallow="tram rail_urban rail rail_electric rail_fast ship" speed="6.89" length="9.38" shape="458.10,590.52 460.10,591.92 462.17,592.39 464.31,591.92 466.52,590.50"/>
    </edge>
    <edge id=":2917422402_3" function="internal">
        <lane id=":2917422402_3_0" index="0" disallow="tram rail_urban rail rail_electric rail_fast ship" speed="27.78" length="14.03" shape="458.10,590.52 468.01,600.80"/>
        <lane id=":2917422402_3_1" index="1" disallow="tram rail_urban rail rail_electric rail_fast ship" speed="27.78" length="14.03" shape="455.89,592.83 465.63,602.93"/>
        <lane id=":2917422402_3_2" index="2" disallow="tram rail_urban rail rail_electric rail_fast ship" speed="27.78" length="14.03" shape="453.68,595.15 463.24,605.06"/>
    </edge>
    <edge id=":2917422410_0" function="internal">
        <lane id=":2917422410_0_0" index="0" disallow="tram rail_urban rail rail_electric rail_fast ship" speed="3.65" length="4.67" shape="974.72,671.63 975.18,673.00 975.01,673.88 974.20,674.27 972.76,674.17"/>
    </edge>
    <edge id=":353064906_0" function="internal">
        <lane id=":353064906_0_0" index="0" disallow="tram rail_urban rail rail_electric rail_fast ship" speed="22.22" length="31.82" shape="263.54,411.52 270.50,416.37 278.51,421.10 285.97,424.90 291.24,426.97"/>
    </edge>
    <edge id=":353064906_1" function="internal">
        <lane id=":353064906_1_0" index="0" disallow="tram rail_urban rail rail_electric rail_fast ship" speed="22.22" length="31.96" shape="263.54,411.52 288.72,431.06"/>
        <lane id=":353064906_1_1" index="1" disallow="tram rail_urban rail rail_electric rail_fast ship" speed="22.22" length="31.96" shape="261.55,414.03 286.75,433.59"/>
        <lane id=":353064906_1_2" index="2" disallow="tram rail_urban rail rail_electric rail_fast ship" speed="22.22" length="31.96" shape="261.55,414.03 266.77,418.88 271.51,424.16 277.09,429.89 284.78,436.12"/>
    </edge>
    <edge id=":353065224_0" function="internal">
        <lane id=":353065224_0_0" index="0" disallow="tram rail_urban rail rail_electric rail_fast ship" speed="22.22" length="8.38" shape="238.94,396.25 241.21,397.34 243.10,397.41 244.99,397.49 247.22,398.62"/>
        <lane id=":353065224_0_1" index="1" disallow="tram rail_urban rail rail_electric rail_fast ship" speed="22.22" length="8.38" shape="238.94,396.25 245.24,401.13"/>
    </edge>
    <edge id=":353065767_0" function="internal">
        <lane id=":353065767_0_0" index="0" disallow="tram rail_urban rail rail_electric rail_fast ship" speed="25.00" length="2.31" shape="365.31,487.54 365.84,487.98 366.20,488.28 366.54,488.61 367.01,489.11"/>
    </edge>
    <edge id=":353065767_1" function="internal">
        <lane id=":353065767_1_0" index="0" disallow="tram rail_urban rail rail_electric rail_fast ship" speed="27.78" length="1.51" shape="363.34,490.01 363.75,490.35 364.02,490.59 364.27,490.85 364.62,491.24"/>
        <lane id=":353065767_1_1" index="1" disallow="tram rail_urban rail rail_electric rail_fast ship" speed="27.78" length="1.51" shape="361.34,492.51 361.62,492.74 361.81,492.91 361.98,493.10 362.23,493.37"/>
    </edge>
    <edge id=":5718595902_0" function="internal">
        <lane id=":5718595902_0_0" index="0" disallow="tram rail_urban rail rail_electric rail_fast ship" speed="25.00" length="16.28" shape="352.97,424.01 348.86,427.07 346.35,430.19 344.55,433.28 342.54,436.25"/>
    </edge>
    <edge id=":5718595902_1" function="internal">
        <lane id=":5718595902_1_0" index="0" disallow="tram rail_urban rail rail_electric rail_fast ship" speed="27.78" length="16.99" shape="352.97,424.01 348.80,426.46 346.04,428.31 343.46,430.41 339.84,433.62"/>
        <lane id=":5718595902_1_1" index="1" disallow="tram rail_urban rail rail_electric rail_fast ship" speed="27.78" length="16.99" shape="351.38,421.24 347.03,423.79 344.16,425.70 341.48,427.89 337.71,431.24"/>
        <lane id=":5718595902_1_2" index="2" disallow="tram rail_urban rail rail_electric rail_fast ship" speed="27.78" length="16.99" shape="349.79,418.46 345.27,421.11 342.28,423.10 339.49,425.37 335.58,428.85"/>
    </edge>
    <edge id=":6195903644_0" function="internal">
        <lane id=":6195903644_0_0" index="0" disallow="tram rail_urban rail rail_electric rail_fast ship" speed="27.78" length="3.13" shape="349.22,407.72 349.96,407.14 350.45,406.74 350.97,406.36 351.76,405.87"/>
        <lane id=":6195903644_0_1" index="1" disallow="tram rail_urban rail rail_electric rail_fast ship" speed="27.78" length="3.13" shape="351.15,410.27 351.88,409.70 352.37,409.31 352.89,408.94 353.68,408.46"/>
    </edge>
    <edge id=":6195903644_2" function="internal">
        <lane id=":6195903644_2_0" index="0" disallow="tram rail_urban rail rail_electric rail_fast ship" speed="25.00" length="3.18" shape="347.35,405.24 348.06,404.62 348.54,404.18 349.05,403.78 349.84,403.28"/>
    </edge>
    <edge id=":6196128277_0" function="internal">
        <lane id=":6196128277_0_0" index="0" disallow="tram rail_urban rail rail_electric rail_fast ship" speed="25.00" length="17.19" shape="350.26,515.08 346.30,511.21 342.77,508.73 339.50,506.97 336.30,505.25"/>
    </edge>
    <edge id=":6196128277_1" function="internal">
        <lane id=":6196128277_1_0" index="0" disallow="tram rail_urban rail rail_electric rail_fast ship" speed="27.78" length="20.77" shape="350.26,515.08 346.39,510.56 343.80,507.41 341.05,504.41 336.73,500.34"/>
        <lane id=":6196128277_1_1" index="1" disallow="tram rail_urban rail rail_electric rail_fast ship" speed="27.78" length="20.77" shape="352.65,512.96 348.72,508.35 346.07,505.15 343.27,502.10 338.87,497.96"/>
        <lane id=":6196128277_1_2" index="2" disallow="tram rail_urban rail rail_electric rail_fast ship" speed="27.78" length="20.77" shape="355.05,510.84 351.04,506.15 348.35,502.89 345.49,499.79 341.01,495.58"/>
        <lane id=":6196128277_1_3" index="3" disallow="tram rail_urban rail rail_electric rail_fast ship" speed="27.78" length="20.77" shape="357.45,508.72 353.37,503.95 350.62,500.64 347.71,497.48 343.14,493.19"/>
        <lane id=":6196128277_1_4" index="4" disallow="tram rail_urban rail rail_electric rail_fast ship" speed="27.78" length="20.77" shape="359.84,506.60 355.69,501.75 352.89,498.38 349.93,495.18 345.28,490.81"/>
    </edge>
    <edge id=":6461018050_0" function="internal">
        <lane id=":6461018050_0_0" index="0" disallow="tram rail_urban rail rail_electric rail_fast ship" speed="22.22" length="1.60" shape="272.97,439.10 271.92,440.31"/>
        <lane id=":6461018050_0_1" index="1" disallow="tram rail_urban rail rail_electric rail_fast ship" speed="22.22" length="1.60" shape="275.07,436.68 274.02,437.89"/>
    </edge>
    <edge id=":6595207911_0" function="internal">
        <lane id=":6595207911_0_0" index="0" allow="pedestrian delivery bicycle" speed="4.23" length="3.16" shape="354.00,426.95 353.15,423.91"/>
    </edge>
    <edge id=":6595207911_1" function="internal">
        <lane id=":6595207911_1_0" index="0" allow="pedestrian delivery bicycle" speed="3.65" length="4.67" shape="354.00,426.95 354.06,425.51 354.54,424.76 355.43,424.68 356.74,425.30"/>
    </edge>
    <edge id=":6595207911_2" function="internal">
        <lane id=":6595207911_2_0" index="0" allow="pedestrian delivery bicycle" speed="6.00" length="7.65" shape="356.24,418.43 355.25,419.45 355.01,420.93 355.50,422.88 356.74,425.30"/>
    </edge>
    <edge id=":6595207911_3" function="internal">
        <lane id=":6595207911_3_0" index="0" disallow="tram rail_urban rail rail_electric rail_fast ship" speed="27.78" length="5.41" shape="356.24,418.43 351.55,421.14"/>
        <lane id=":6595207911_3_1" index="1" disallow="tram rail_urban rail rail_electric rail_fast ship" speed="27.78" length="5.41" shape="354.63,415.66 349.96,418.36"/>
    </edge>
    <edge id=":6595207915_0" function="internal">
        <lane id=":6595207915_0_0" index="0" allow="pedestrian delivery bicycle" speed="5.15" length="5.13" shape="391.10,404.60 390.37,403.36 389.43,402.63 388.31,402.41 386.98,402.71"/>
    </edge>
    <edge id=":6595207915_1" function="internal">
        <lane id=":6595207915_1_0" index="0" allow="pedestrian delivery bicycle" speed="3.65" length="4.67" shape="391.10,404.60 391.37,403.18 391.95,402.50 392.84,402.55 394.05,403.35"/>
    </edge>
    <edge id=":6595207915_2" function="internal">
        <lane id=":6595207915_2_0" index="0" allow="pedestrian delivery bicycle" speed="5.01" length="5.04" shape="395.75,399.30 394.54,399.98 393.85,400.88 393.69,402.00 394.05,403.35"/>
    </edge>
    <edge id=":6595207915_3" function="internal">
        <lane id=":6595207915_3_0" index="0" disallow="tram rail_urban rail rail_electric rail_fast ship" speed="27.78" length="9.41" shape="395.75,399.30 386.98,402.71"/>
        <lane id=":6595207915_3_1" index="1" disallow="tram rail_urban rail rail_electric rail_fast ship" speed="27.78" length="9.41" shape="394.59,396.32 385.82,399.72"/>
    </edge>
    <edge id=":6596218773_0" function="internal">
        <lane id=":6596218773_0_0" index="0" disallow="tram rail_urban rail rail_electric rail_fast ship" speed="13.89" length="14.45" shape="568.70,525.46 556.55,533.28"/>
    </edge>
    <edge id=":6596218773_1" function="internal">
        <lane id=":6596218773_1_0" index="0" disallow="tram rail_urban rail rail_electric rail_fast ship" speed="7.80" length="4.10" shape="568.70,525.46 564.98,527.16"/>
    </edge>
    <edge id=":6596218773_2" function="internal">
        <lane id=":6596218773_2_0" index="0" disallow="tram rail_urban rail rail_electric rail_fast ship" speed="3.65" length="1.44" shape="568.70,525.46 567.26,525.44"/>
    </edge>
    <edge id=":6596218773_9" function="internal">
        <lane id=":6596218773_9_0" index="0" disallow="tram rail_urban rail rail_electric rail_fast ship" speed="7.80" length="10.59" shape="564.98,527.16 561.73,527.17 558.97,525.47 556.68,522.07"/>
    </edge>
    <edge id=":6596218773_10" function="internal">
        <lane id=":6596218773_10_0" index="0" disallow="tram rail_urban rail rail_electric rail_fast ship" speed="3.65" length="3.23" shape="567.26,525.44 566.49,524.98 566.40,524.09 566.97,522.77"/>
    </edge>
    <edge id=":6596218773_3" function="internal">
        <lane id=":6596218773_3_0" index="0" disallow="tram rail_urban rail rail_electric rail_fast ship" speed="6.26" length="9.05" shape="559.56,520.68 560.97,522.77 562.68,523.82 564.68,523.82 566.97,522.77"/>
    </edge>
    <edge id=":6596218773_4" function="internal">
        <lane id=":6596218773_4_0" index="0" disallow="tram rail_urban rail rail_electric rail_fast ship" speed="8.44" length="14.40" shape="559.56,520.68 560.85,524.52 560.77,527.90 559.34,530.82 556.55,533.28"/>
    </edge>
    <edge id=":6596218773_5" function="internal">
        <lane id=":6596218773_5_0" index="0" disallow="tram rail_urban rail rail_electric rail_fast ship" speed="3.65" length="4.67" shape="559.56,520.68 559.36,522.11 558.82,522.82 557.92,522.80 556.68,522.07"/>
    </edge>
    <edge id=":6596218773_6" function="internal">
        <lane id=":6596218773_6_0" index="0" disallow="tram rail_urban rail rail_electric rail_fast ship" speed="7.02" length="9.69" shape="554.82,530.59 556.64,528.96 557.56,526.99 557.57,524.70 556.68,522.07"/>
    </edge>
    <edge id=":6596218773_7" function="internal">
        <lane id=":6596218773_7_0" index="0" disallow="tram rail_urban rail rail_electric rail_fast ship" speed="13.89" length="14.45" shape="554.82,530.59 566.97,522.77"/>
    </edge>
    <edge id=":6596218773_8" function="internal">
        <lane id=":6596218773_8_0" index="0" disallow="tram rail_urban rail rail_electric rail_fast ship" speed="3.65" length="1.44" shape="554.82,530.59 556.26,530.61"/>
    </edge>
    <edge id=":6596218773_11" function="internal">
        <lane id=":6596218773_11_0" index="0" disallow="tram rail_urban rail rail_electric rail_fast ship" speed="3.65" length="3.23" shape="556.26,530.61 557.03,531.07 557.13,531.96 556.55,533.28"/>
    </edge>
    <edge id=":6596218774_0" function="internal">
        <lane id=":6596218774_0_0" index="0" disallow="tram rail_urban rail rail_electric rail_fast ship" speed="6.67" length="9.25" shape="483.60,370.40 482.18,368.25 480.44,367.02 478.38,366.73 476.00,367.36"/>
    </edge>
    <edge id=":6596218774_1" function="internal">
        <lane id=":6596218774_1_0" index="0" disallow="tram rail_urban rail rail_electric rail_fast ship" speed="3.65" length="4.67" shape="483.60,370.40 483.80,368.97 484.35,368.26 485.25,368.27 486.49,369.01"/>
    </edge>
    <edge id=":6596218774_2" function="internal">
        <lane id=":6596218774_2_0" index="0" disallow="tram rail_urban rail rail_electric rail_fast ship" speed="5.90" length="7.47" shape="487.35,362.47 486.05,363.42 485.47,364.82 485.62,366.68 486.49,369.01"/>
    </edge>
    <edge id=":6596218774_3" function="internal">
        <lane id=":6596218774_3_0" index="0" disallow="tram rail_urban rail rail_electric rail_fast ship" speed="27.78" length="12.36" shape="487.35,362.47 476.00,367.36"/>
        <lane id=":6596218774_3_1" index="1" disallow="tram rail_urban rail rail_electric rail_fast ship" speed="27.78" length="12.36" shape="486.08,359.53 474.73,364.42"/>
    </edge>
    <edge id=":661830499#1-AddedOnRampNode_0" function="internal">
        <lane id=":661830499#1-AddedOnRampNode_0_0" index="0" disallow="tram rail_urban rail rail_electric rail_fast ship" speed="27.78" length="0.33" shape="440.78,363.83 441.09,363.67"/>
        <lane id=":661830499#1-AddedOnRampNode_0_1" index="1" disallow="tram rail_urban rail rail_electric rail_fast ship" speed="27.78" length="0.33" shape="442.20,366.69 442.50,366.55"/>
        <lane id=":661830499#1-AddedOnRampNode_0_2" index="2" disallow="tram rail_urban rail rail_electric rail_fast ship" speed="27.78" length="0.33" shape="443.62,369.56 443.91,369.42"/>
    </edge>
    <edge id=":661830502#0-AddedOnRampNode_0" function="internal">
        <lane id=":661830502#0-AddedOnRampNode_0_0" index="0" disallow="tram rail_urban rail rail_electric rail_fast ship" speed="27.78" length="1.63" shape="433.13,562.69 432.17,564.01"/>
        <lane id=":661830502#0-AddedOnRampNode_0_1" index="1" disallow="tram rail_urban rail rail_electric rail_fast ship" speed="27.78" length="1.63" shape="430.81,564.89 429.85,566.22"/>
        <lane id=":661830502#0-AddedOnRampNode_0_2" index="2" disallow="tram rail_urban rail rail_electric rail_fast ship" speed="27.78" length="1.63" shape="428.49,567.10 427.53,568.42"/>
    </edge>
    <edge id=":cluster_248566141_248566148_5718595916_6196128282_0" function="internal">
        <lane id=":cluster_248566141_248566148_5718595916_6196128282_0_0" index="0" disallow="tram rail_urban rail rail_electric rail_fast ship" speed="25.00" length="32.02" shape="313.74,480.14 306.42,472.85 301.49,466.60 297.40,461.12 292.60,456.08"/>
        <lane id=":cluster_248566141_248566148_5718595916_6196128282_0_1" index="1" disallow="tram rail_urban rail rail_electric rail_fast ship" speed="25.00" length="32.02" shape="315.74,477.64 308.46,470.38 303.56,464.16 299.49,458.69 294.70,453.67"/>
    </edge>
    <edge id=":cluster_248566141_248566148_5718595916_6196128282_2" function="internal">
        <lane id=":cluster_248566141_248566148_5718595916_6196128282_2_0" index="0" disallow="tram rail_urban rail rail_electric rail_fast ship" speed="13.41" length="36.13" shape="317.74,475.14 313.49,468.39 310.88,458.61 310.33,448.52 312.30,440.84"/>
        <lane id=":cluster_248566141_248566148_5718595916_6196128282_2_1" index="1" disallow="tram rail_urban rail rail_electric rail_fast ship" speed="13.02" length="34.02" shape="319.74,472.64 315.19,466.14 311.99,457.07 310.80,447.83 312.30,440.84"/>
        <lane id=":cluster_248566141_248566148_5718595916_6196128282_2_2" index="2" disallow="tram rail_urban rail rail_electric rail_fast ship" speed="12.95" length="33.59" shape="319.74,472.64 313.83,465.83 311.08,458.53 311.48,450.76 315.03,442.50"/>
        <lane id=":cluster_248566141_248566148_5718595916_6196128282_2_3" index="3" disallow="tram rail_urban rail rail_electric rail_fast ship" speed="12.24" length="29.92" shape="321.74,470.14 317.31,464.28 314.37,456.62 313.44,448.80 315.03,442.50"/>
    </edge>
    <edge id=":cluster_248566141_248566148_5718595916_6196128282_6" function="internal">
        <lane id=":cluster_248566141_248566148_5718595916_6196128282_6_0" index="0" disallow="tram rail_urban rail rail_electric rail_fast ship" speed="5.00" length="10.61" shape="321.74,470.14 320.75,467.02 321.18,465.03 323.02,464.18 326.28,464.47"/>
    </edge>
    <edge id=":cluster_248566141_248566148_5718595916_6196128282_7" function="internal">
        <lane id=":cluster_248566141_248566148_5718595916_6196128282_7_0" index="0" disallow="tram rail_urban rail rail_electric rail_fast ship" speed="27.78" length="37.62" shape="327.77,450.20 306.12,481.10"/>
        <lane id=":cluster_248566141_248566148_5718595916_6196128282_7_1" index="1" disallow="tram rail_urban rail rail_electric rail_fast ship" speed="27.78" length="37.62" shape="325.03,448.54 303.50,479.26"/>
    </edge>
    <edge id=":cluster_248566141_248566148_5718595916_6196128282_9" function="internal">
        <lane id=":cluster_248566141_248566148_5718595916_6196128282_9_0" index="0" disallow="tram rail_urban rail rail_electric rail_fast ship" speed="10.92" length="30.82" shape="322.30,446.89 316.98,451.97 309.29,455.31 301.20,456.13 294.70,453.67"/>
    </edge>
    <edge id=":cluster_248566141_248566148_5718595916_6196128282_10" function="internal">
        <lane id=":cluster_248566141_248566148_5718595916_6196128282_10_0" index="0" disallow="tram rail_urban rail rail_electric rail_fast ship" speed="5.30" length="12.39" shape="322.30,446.89 318.83,448.51 316.47,448.32 315.20,446.32 315.03,442.50"/>
    </edge>
    <edge id=":cluster_248566141_248566148_5718595916_6196128282_11" function="internal">
        <lane id=":cluster_248566141_248566148_5718595916_6196128282_11_0" index="0" disallow="tram rail_urban rail rail_electric rail_fast ship" speed="25.00" length="30.87" shape="304.56,442.31 328.28,461.97"/>
        <lane id=":cluster_248566141_248566148_5718595916_6196128282_11_1" index="1" disallow="tram rail_urban rail rail_electric rail_fast ship" speed="25.00" length="30.87" shape="302.45,444.74 326.28,464.47"/>
    </edge>
    <edge id=":cluster_248566141_248566148_5718595916_6196128282_13" function="internal">
        <lane id=":cluster_248566141_248566148_5718595916_6196128282_13_0" index="0" disallow="tram rail_urban rail rail_electric rail_fast ship" speed="12.20" length="34.07" shape="300.35,447.16 304.54,453.30 306.49,462.39 306.16,471.89 303.50,479.26"/>
    </edge>
    <edge id=":cluster_248566141_248566148_5718595916_6196128282_14" function="internal">
        <lane id=":cluster_248566141_248566148_5718595916_6196128282_14_0" index="0" disallow="tram rail_urban rail rail_electric rail_fast ship" speed="5.40" length="12.58" shape="300.35,447.16 301.37,450.91 300.78,453.24 298.55,454.16 294.70,453.67"/>
    </edge>
    <edge id=":cluster_248566141_248566148_5718595916_6196128282_15" function="internal">
        <lane id=":cluster_248566141_248566148_5718595916_6196128282_15_0" index="0" disallow="tram rail_urban rail rail_electric rail_fast ship" speed="27.78" length="36.58" shape="291.86,471.05 312.30,440.84"/>
        <lane id=":cluster_248566141_248566148_5718595916_6196128282_15_1" index="1" disallow="tram rail_urban rail rail_electric rail_fast ship" speed="27.78" length="36.58" shape="294.47,472.89 315.03,442.50"/>
    </edge>
    <edge id=":cluster_248566141_248566148_5718595916_6196128282_17" function="internal">
        <lane id=":cluster_248566141_248566148_5718595916_6196128282_17_0" index="0" disallow="tram rail_urban rail rail_electric rail_fast ship" speed="11.49" length="32.96" shape="297.09,474.74 302.74,469.23 311.03,464.83 319.65,462.82 326.28,464.47"/>
    </edge>
    <edge id=":cluster_248566141_248566148_5718595916_6196128282_18" function="internal">
        <lane id=":cluster_248566141_248566148_5718595916_6196128282_18_0" index="0" disallow="tram rail_urban rail rail_electric rail_fast ship" speed="5.16" length="11.45" shape="297.09,474.74 300.39,473.46 302.56,473.79 303.59,475.72 303.50,479.26"/>
    </edge>

    <edge id="-1100337834#0" from="6596218773" to="2917422402" priority="3" type="highway.residential" shape="561.43,528.24 483.36,578.46 460.73,597.45">
        <lane id="-1100337834#0_0" index="0" disallow="tram rail_urban rail rail_electric rail_fast ship" speed="13.89" length="106.44" shape="556.55,533.28 484.31,579.75 468.58,592.95">
            <param key="origId" value="1100337834"/>
        </lane>
    </edge>
    <edge id="-1100337834#1" from="2917422410" to="6596218773" priority="3" type="highway.residential" shape="973.74,672.90 805.25,542.56 771.02,514.98 745.93,505.89 717.96,506.53 702.77,506.91 670.76,512.05 568.50,523.69 561.43,528.24">
        <lane id="-1100337834#1_0" index="0" disallow="tram rail_urban rail rail_electric rail_fast ship" speed="13.89" length="460.97" shape="972.76,674.17 804.26,543.82 770.22,516.39 745.67,507.50 718.00,508.13 702.92,508.51 670.98,513.64 569.05,525.24 568.70,525.46">
            <param key="origId" value="1100337834"/>
        </lane>
    </edge>
    <edge id="-702308745" from="6595207915" to="6595207911" priority="1" type="highway.service" shape="390.69,399.55 396.73,413.73 393.54,424.03 368.46,437.26 360.76,435.02 351.31,419.43">
        <lane id="-702308745_0" index="0" allow="pedestrian delivery bicycle" speed="5.56" length="73.20" shape="394.05,403.35 398.43,413.64 394.87,425.14 368.63,438.98 359.71,436.38 354.00,426.95">